
Version, 8.5.0;

Timestep, 6;

ShadowCalculation,
 AverageOverDaysInFrequency,        !- Calculation Method
 30,        !- Calculation Frequency
 3000;    !- Maximum Figures in Shadow Overlap Calculation

ProgramControl,
 1; !- Number of Threads AllowedNumber

Building,
 lpt1run.idf, !- Name
 0.0, !- North Axis {deg}
 City, !- Terrain
 , !- Loads Convergence Tolerance Value
 , !- Temperature Convergence Tolerance Value {deltaC}
 FullInteriorAndExteriorWithReflections, !- Solar Distribution or maybe FullExterior
 25, !- Maximum Number of Warmup Days
 6; !- Minimum Number of Warmup Days

Sizing:Parameters,
 1.2,     !- Heating Sizing Factor
 1.2;     !- Cooling Sizing Factor

Site:Location,
 Chicago Ohare Intl Ap USA,
 41.98,    !Latitude
 -87.92,   !Longitude
 -6.0, !Time Zone
 201.0;   !Elevation

 SizingPeriod:DesignDay,
  Chicago Ohare Intl Ap Ann Htg 99.6% Condns DB,     !- Name
          1,      !- Month
         21,      !- Day of Month
  WinterDesignDay,!- Day Type
        -20,      !- Maximum Dry-Bulb Temperature {C}
        0.0,      !- Daily Dry-Bulb Temperature Range {C}
 DefaultMultipliers, !- Dry-Bulb Temperature Range Modifier Type
           ,      !- Dry-Bulb Temperature Range Modifier Schedule Name
    Wetbulb,      !- Humidity Condition Type
        -20,      !- Wetbulb at Maximum Dry-Bulb {C}
           ,      !- Humidity Indicating Day Schedule Name
           ,      !- Humidity Ratio at Maximum Dry-Bulb {kgWater/kgDryAir}
           ,      !- Enthalpy at Maximum Dry-Bulb {J/kg}
           ,      !- Daily Wet-Bulb Temperature Range {deltaC}
     98934.,      !- Barometric Pressure {Pa}
        4.9,      !- Wind Speed {m/s} design conditions vs. traditional 6.71 m/s (15 mph)
        270,      !- Wind Direction {Degrees; N=0, S=180}
         No,      !- Rain {Yes/No}
         No,      !- Snow on ground {Yes/No}
         No,      !- Daylight Savings Time Indicator
  ASHRAEClearSky, !- Solar Model Indicator
           ,      !- Beam Solar Day Schedule Name
           ,      !- Diffuse Solar Day Schedule Name
           ,      !- ASHRAE Clear Sky Optical Depth for Beam Irradiance (taub)
           ,      !- ASHRAE Clear Sky Optical Depth for Diffuse Irradiance (taud)
       0.00;      !- Clearness {0.0 to 1.1}

 SizingPeriod:DesignDay,
  Chicago Ohare Intl Ap Ann Hum_n 99.6% Condns DP=>MCDB,     !- Name
          1,      !- Month
         21,      !- Day of Month
  WinterDesignDay,!- Day Type
      -19.2,      !- Maximum Dry-Bulb Temperature {C}
        0.0,      !- Daily Dry-Bulb Temperature Range {C}
 DefaultMultipliers, !- Dry-Bulb Temperature Range Modifier Type
           ,      !- Dry-Bulb Temperature Range Modifier Schedule Name
    Dewpoint,     !- Humidity Condition Type
      -25.7,      !- Dewpoint at Maximum Dry-Bulb {C}
           ,      !- Humidity Indicating Day Schedule Name
           ,      !- Humidity Ratio at Maximum Dry-Bulb {kgWater/kgDryAir}
           ,      !- Enthalpy at Maximum Dry-Bulb {J/kg}
           ,      !- Daily Wet-Bulb Temperature Range {deltaC}
     98934.,      !- Barometric Pressure {Pa}
        4.9,      !- Wind Speed {m/s} design conditions vs. traditional 6.71 m/s (15 mph)
        270,      !- Wind Direction {Degrees; N=0, S=180}
         No,      !- Rain {Yes/No}
         No,      !- Snow on ground {Yes/No}
         No,      !- Daylight Savings Time Indicator
  ASHRAEClearSky, !- Solar Model Indicator
           ,      !- Beam Solar Day Schedule Name
           ,      !- Diffuse Solar Day Schedule Name
           ,      !- ASHRAE Clear Sky Optical Depth for Beam Irradiance (taub)
           ,      !- ASHRAE Clear Sky Optical Depth for Diffuse Irradiance (taud)
       0.00;      !- Clearness {0.0 to 1.1}

 SizingPeriod:DesignDay,
  Chicago Ohare Intl Ap Ann Htg Wind 99.6% Condns WS=>MCDB,     !- Name
          1,      !- Month
         21,      !- Day of Month
  WinterDesignDay,!- Day Type
       -3.5,      !- Maximum Dry-Bulb Temperature {C}
        0.0,      !- Daily Dry-Bulb Temperature Range {C}
 DefaultMultipliers, !- Dry-Bulb Temperature Range Modifier Type
           ,      !- Dry-Bulb Temperature Range Modifier Schedule Name
    Wetbulb,      !- Humidity Condition Type
       -3.5,      !- Wetbulb at Maximum Dry-Bulb {C}
           ,      !- Humidity Indicating Day Schedule Name
           ,      !- Humidity Ratio at Maximum Dry-Bulb {kgWater/kgDryAir}
           ,      !- Enthalpy at Maximum Dry-Bulb {J/kg}
           ,      !- Daily Wet-Bulb Temperature Range {deltaC}
     98934.,      !- Barometric Pressure {Pa}
       12.4,      !- Wind Speed {m/s} design conditions vs. traditional 6.71 m/s (15 mph)
        270,      !- Wind Direction {Degrees; N=0, S=180}
         No,      !- Rain {Yes/No}
         No,      !- Snow on ground {Yes/No}
         No,      !- Daylight Savings Time Indicator
  ASHRAEClearSky, !- Solar Model Indicator
           ,      !- Beam Solar Day Schedule Name
           ,      !- Diffuse Solar Day Schedule Name
           ,      !- ASHRAE Clear Sky Optical Depth for Beam Irradiance (taub)
           ,      !- ASHRAE Clear Sky Optical Depth for Diffuse Irradiance (taud)
       0.00;      !- Clearness {0.0 to 1.1}

 SizingPeriod:DesignDay,
  Chicago Ohare Intl Ap Ann Clg .4% Condns DB=>MWB,     !- Name
          7,      !- Month
         21,      !- Day of Month
  SummerDesignDay,!- Day Type
       33.3,      !- Maximum Dry-Bulb Temperature {C}
       10.5,      !- Daily Dry-Bulb Temperature Range {C}
 DefaultMultipliers, !- Dry-Bulb Temperature Range Modifier Type
           ,      !- Dry-Bulb Temperature Range Modifier Schedule Name
    Wetbulb,      !- Humidity Condition Type
       23.7,      !- Wetbulb at Maximum Dry-Bulb {C}
           ,      !- Humidity Indicating Day Schedule Name
           ,      !- Humidity Ratio at Maximum Dry-Bulb {kgWater/kgDryAir}
           ,      !- Enthalpy at Maximum Dry-Bulb {J/kg}
           ,      !- Daily Wet-Bulb Temperature Range {deltaC}
     98934.,      !- Barometric Pressure {Pa}
        5.2,      !- Wind Speed {m/s} design conditions vs. traditional 3.35 m/s (7mph)
        230,      !- Wind Direction {Degrees; N=0, S=180}
         No,      !- Rain {Yes/No}
         No,      !- Snow on ground {Yes/No}
         No,      !- Daylight Savings Time Indicator
       ASHRAETau, !- Solar Model Indicator
           ,      !- Beam Solar Day Schedule Name
           ,      !- Diffuse Solar Day Schedule Name
      0.455,      !- ASHRAE Clear Sky Optical Depth for Beam Irradiance (taub)
      2.050;      !- ASHRAE Clear Sky Optical Depth for Diffuse Irradiance (taud)

 SizingPeriod:DesignDay,
  Chicago Ohare Intl Ap Ann Clg .4% Condns WB=>MDB,     !- Name
          7,      !- Month
         21,      !- Day of Month
  SummerDesignDay,!- Day Type
       31.2,      !- Maximum Dry-Bulb Temperature {C}
       10.5,      !- Daily Dry-Bulb Temperature Range {C}
 DefaultMultipliers, !- Dry-Bulb Temperature Range Modifier Type
           ,      !- Dry-Bulb Temperature Range Modifier Schedule Name
    Wetbulb,      !- Humidity Condition Type
       25.5,      !- Wetbulb at Maximum Dry-Bulb {C}
           ,      !- Humidity Indicating Day Schedule Name
           ,      !- Humidity Ratio at Maximum Dry-Bulb {kgWater/kgDryAir}
           ,      !- Enthalpy at Maximum Dry-Bulb {J/kg}
           ,      !- Daily Wet-Bulb Temperature Range {deltaC}
     98934.,      !- Barometric Pressure {Pa}
        5.2,      !- Wind Speed {m/s} design conditions vs. traditional 3.35 m/s (7mph)
        230,      !- Wind Direction {Degrees; N=0, S=180}
         No,      !- Rain {Yes/No}
         No,      !- Snow on ground {Yes/No}
         No,      !- Daylight Savings Time Indicator
       ASHRAETau, !- Solar Model Indicator
           ,      !- Beam Solar Day Schedule Name
           ,      !- Diffuse Solar Day Schedule Name
      0.455,      !- ASHRAE Clear Sky Optical Depth for Beam Irradiance (taub)
      2.050;      !- ASHRAE Clear Sky Optical Depth for Diffuse Irradiance (taud)

 SizingPeriod:DesignDay,
  Chicago Ohare Intl Ap Ann Clg .4% Condns DP=>MDB,     !- Name
          7,      !- Month
         21,      !- Day of Month
  SummerDesignDay,!- Day Type
       28.9,      !- Maximum Dry-Bulb Temperature {C}
       10.5,      !- Daily Dry-Bulb Temperature Range {C}
 DefaultMultipliers, !- Dry-Bulb Temperature Range Modifier Type
           ,      !- Dry-Bulb Temperature Range Modifier Schedule Name
    Dewpoint,     !- Humidity Condition Type
       23.8,      !- Dewpoint at Maximum Dry-Bulb {C}
           ,      !- Humidity Indicating Day Schedule Name
           ,      !- Humidity Ratio at Maximum Dry-Bulb {kgWater/kgDryAir}
           ,      !- Enthalpy at Maximum Dry-Bulb {J/kg}
           ,      !- Daily Wet-Bulb Temperature Range {deltaC}
     98934.,      !- Barometric Pressure {Pa}
        5.2,      !- Wind Speed {m/s} design conditions vs. traditional 3.35 m/s (7mph)
        230,      !- Wind Direction {Degrees; N=0, S=180}
         No,      !- Rain {Yes/No}
         No,      !- Snow on ground {Yes/No}
         No,      !- Daylight Savings Time Indicator
       ASHRAETau, !- Solar Model Indicator
           ,      !- Beam Solar Day Schedule Name
           ,      !- Diffuse Solar Day Schedule Name
      0.455,      !- ASHRAE Clear Sky Optical Depth for Beam Irradiance (taub)
      2.050;      !- ASHRAE Clear Sky Optical Depth for Diffuse Irradiance (taud)

 SizingPeriod:DesignDay,
  Chicago Ohare Intl Ap Ann Clg .4% Condns Enth=>MDB,     !- Name
          7,      !- Month
         21,      !- Day of Month
  SummerDesignDay,!- Day Type
       31.4,      !- Maximum Dry-Bulb Temperature {C}
       10.5,      !- Daily Dry-Bulb Temperature Range {C}
 DefaultMultipliers, !- Dry-Bulb Temperature Range Modifier Type
           ,      !- Dry-Bulb Temperature Range Modifier Schedule Name
   Enthalpy,      !- Humidity Condition Type
           ,      !- Wetbulb or Dewpoint at Maximum Dry-Bulb
           ,      !- Humidity Indicating Day Schedule Name
           ,      !- Humidity Ratio at Maximum Dry-Bulb {kgWater/kgDryAir}
    79200.0,      !- Enthalpy at Maximum Dry-Bulb {J/kg}
           ,      !- Daily Wet-Bulb Temperature Range {deltaC}
     98934.,      !- Barometric Pressure {Pa}
        5.2,      !- Wind Speed {m/s} design conditions vs. traditional 3.35 m/s (7mph)
        230,      !- Wind Direction {Degrees; N=0, S=180}
         No,      !- Rain {Yes/No}
         No,      !- Snow on ground {Yes/No}
         No,      !- Daylight Savings Time Indicator
       ASHRAETau, !- Solar Model Indicator
           ,      !- Beam Solar Day Schedule Name
           ,      !- Diffuse Solar Day Schedule Name
      0.455,      !- ASHRAE Clear Sky Optical Depth for Beam Irradiance (taub)
      2.050;      !- ASHRAE Clear Sky Optical Depth for Diffuse Irradiance (taud)


SimulationControl,
 Yes,    !- Do Zone Sizing Calculation
 Yes,  !- Do System Sizing Calculation
 Yes,   !- Do Plant Sizing Calculation
 No,  !- Run Simulation for Sizing Periods
 Yes; !- Run Simulation for Weather File Run Periods

RunPeriod,
 customRun,    !- Name
 1,   !- Begin Month
 1,    !- Begin Day of Month
 6, !- End Month
 30,   !- End Day of Month
 UseWeatherFile,   !- Day of Week for Start Day
 Yes,              !- Use Weather File Holidays and Special Days
 Yes,              !- Use Weather File Daylight Saving Period
 No,               !- Apply Weekend Holiday Rule
 Yes,              !- Use Weather File Rain Indicators
 Yes;              !- Use Weather File Snow Indicators
ScheduleTypeLimits,
  TEMPERATURE 33,   !- name
  ,   !- - Lower Limit Value {BasedOnField A3}
  ,   !- - Upper Limit Value {BasedOnField A3}
  Continuous,   !- - Numeric Type
  temperature;   !- - Unit Type

ScheduleTypeLimits,
  TEMPERATURE,   !- name
  -60,   !- - Lower Limit Value {BasedOnField A3}
  200,   !- - Upper Limit Value {BasedOnField A3}
  CONTINUOUS;   !- - Numeric Type

ScheduleTypeLimits,
  TEMPERATURE 46,   !- name
  ,   !- - Lower Limit Value {BasedOnField A3}
  ,   !- - Upper Limit Value {BasedOnField A3}
  Continuous,   !- - Numeric Type
  temperature;   !- - Unit Type

ScheduleTypeLimits,
  TEMPERATURE 56,   !- name
  ,   !- - Lower Limit Value {BasedOnField A3}
  ,   !- - Upper Limit Value {BasedOnField A3}
  Continuous,   !- - Numeric Type
  temperature;   !- - Unit Type

ScheduleTypeLimits,
  TEMPERATURE 26,   !- name
  ,   !- - Lower Limit Value {BasedOnField A3}
  ,   !- - Upper Limit Value {BasedOnField A3}
  Continuous,   !- - Numeric Type
  temperature;   !- - Unit Type

ScheduleTypeLimits,
  TEMPERATURE 36,   !- name
  ,   !- - Lower Limit Value {BasedOnField A3}
  ,   !- - Upper Limit Value {BasedOnField A3}
  Continuous,   !- - Numeric Type
  temperature;   !- - Unit Type

ScheduleTypeLimits,
  ACTIVITYLEVEL 3,   !- name
  0,   !- - Lower Limit Value {BasedOnField A3}
  ,   !- - Upper Limit Value {BasedOnField A3}
  Continuous,   !- - Numeric Type
  activitylevel;   !- - Unit Type

ScheduleTypeLimits,
  ACTIVITYLEVEL 9,   !- name
  0,   !- - Lower Limit Value {BasedOnField A3}
  ,   !- - Upper Limit Value {BasedOnField A3}
  Continuous,   !- - Numeric Type
  activitylevel;   !- - Unit Type

ScheduleTypeLimits,
  TEMPERATURE 16,   !- name
  ,   !- - Lower Limit Value {BasedOnField A3}
  ,   !- - Upper Limit Value {BasedOnField A3}
  Continuous,   !- - Numeric Type
  temperature;   !- - Unit Type

ScheduleTypeLimits,
  ACTIVITYLEVEL 7,   !- name
  0,   !- - Lower Limit Value {BasedOnField A3}
  ,   !- - Upper Limit Value {BasedOnField A3}
  Continuous,   !- - Numeric Type
  activitylevel;   !- - Unit Type

ScheduleTypeLimits,
  FRACTIONAL,   !- name
  0,   !- - Lower Limit Value {BasedOnField A3}
  1,   !- - Upper Limit Value {BasedOnField A3}
  Continuous;   !- - Numeric Type

ScheduleTypeLimits,
  ALWAYS ON DISCRETE LIMITS,   !- name
  0,   !- - Lower Limit Value {BasedOnField A3}
  1,   !- - Upper Limit Value {BasedOnField A3}
  Discrete,   !- - Numeric Type
  availability;   !- - Unit Type

ScheduleTypeLimits,
  ANY NUMBER;   !- name

ScheduleTypeLimits,
  ACTIVITYLEVEL 4,   !- name
  0,   !- - Lower Limit Value {BasedOnField A3}
  ,   !- - Upper Limit Value {BasedOnField A3}
  Continuous,   !- - Numeric Type
  activitylevel;   !- - Unit Type

ScheduleTypeLimits,
  ACTIVITYLEVEL 12,   !- name
  0,   !- - Lower Limit Value {BasedOnField A3}
  ,   !- - Upper Limit Value {BasedOnField A3}
  Continuous,   !- - Numeric Type
  activitylevel;   !- - Unit Type

ScheduleTypeLimits,
  ACTIVITYLEVEL 15,   !- name
  0,   !- - Lower Limit Value {BasedOnField A3}
  ,   !- - Upper Limit Value {BasedOnField A3}
  Continuous,   !- - Numeric Type
  activitylevel;   !- - Unit Type

ScheduleTypeLimits,
  ACTIVITYLEVEL 14,   !- name
  0,   !- - Lower Limit Value {BasedOnField A3}
  ,   !- - Upper Limit Value {BasedOnField A3}
  Continuous,   !- - Numeric Type
  activitylevel;   !- - Unit Type

ScheduleTypeLimits,
  ACTIVITYLEVEL 11,   !- name
  0,   !- - Lower Limit Value {BasedOnField A3}
  ,   !- - Upper Limit Value {BasedOnField A3}
  Continuous,   !- - Numeric Type
  activitylevel;   !- - Unit Type

ScheduleTypeLimits,
  ACTIVITYLEVEL 10,   !- name
  0,   !- - Lower Limit Value {BasedOnField A3}
  ,   !- - Upper Limit Value {BasedOnField A3}
  Continuous,   !- - Numeric Type
  activitylevel;   !- - Unit Type

ScheduleTypeLimits,
  ACTIVITYLEVEL 13,   !- name
  0,   !- - Lower Limit Value {BasedOnField A3}
  ,   !- - Upper Limit Value {BasedOnField A3}
  Continuous,   !- - Numeric Type
  activitylevel;   !- - Unit Type

ScheduleTypeLimits,
  ACTIVITYLEVEL 1,   !- name
  0,   !- - Lower Limit Value {BasedOnField A3}
  ,   !- - Upper Limit Value {BasedOnField A3}
  Continuous,   !- - Numeric Type
  activitylevel;   !- - Unit Type

ScheduleTypeLimits,
  ON/OFF,   !- name
  0,   !- - Lower Limit Value {BasedOnField A3}
  1,   !- - Upper Limit Value {BasedOnField A3}
  DISCRETE;   !- - Numeric Type

ScheduleTypeLimits,
  TEMPERATURE 6,   !- name
  ,   !- - Lower Limit Value {BasedOnField A3}
  ,   !- - Upper Limit Value {BasedOnField A3}
  Continuous,   !- - Numeric Type
  temperature;   !- - Unit Type

ScheduleTypeLimits,
  TEMPERATURE 7,   !- name
  ,   !- - Lower Limit Value {BasedOnField A3}
  ,   !- - Upper Limit Value {BasedOnField A3}
  Continuous,   !- - Numeric Type
  temperature;   !- - Unit Type

ScheduleTypeLimits,
  TEMPERATURE 45,   !- name
  ,   !- - Lower Limit Value {BasedOnField A3}
  ,   !- - Upper Limit Value {BasedOnField A3}
  Continuous,   !- - Numeric Type
  temperature;   !- - Unit Type

ScheduleTypeLimits,
  TEMPERATURE 55,   !- name
  ,   !- - Lower Limit Value {BasedOnField A3}
  ,   !- - Upper Limit Value {BasedOnField A3}
  Continuous,   !- - Numeric Type
  temperature;   !- - Unit Type

ScheduleTypeLimits,
  TEMPERATURE 25,   !- name
  ,   !- - Lower Limit Value {BasedOnField A3}
  ,   !- - Upper Limit Value {BasedOnField A3}
  Continuous,   !- - Numeric Type
  temperature;   !- - Unit Type

ScheduleTypeLimits,
  TEMPERATURE 35,   !- name
  ,   !- - Lower Limit Value {BasedOnField A3}
  ,   !- - Upper Limit Value {BasedOnField A3}
  Continuous,   !- - Numeric Type
  temperature;   !- - Unit Type

ScheduleTypeLimits,
  TEMPERATURE 4,   !- name
  ,   !- - Lower Limit Value {BasedOnField A3}
  ,   !- - Upper Limit Value {BasedOnField A3}
  Continuous,   !- - Numeric Type
  temperature;   !- - Unit Type

ScheduleTypeLimits,
  TEMPERATURE 15,   !- name
  ,   !- - Lower Limit Value {BasedOnField A3}
  ,   !- - Upper Limit Value {BasedOnField A3}
  Continuous,   !- - Numeric Type
  temperature;   !- - Unit Type

ScheduleTypeLimits,
  TEMPERATURE 5,   !- name
  ,   !- - Lower Limit Value {BasedOnField A3}
  ,   !- - Upper Limit Value {BasedOnField A3}
  Continuous,   !- - Numeric Type
  temperature;   !- - Unit Type

ScheduleTypeLimits,
  TEMPERATURE 2,   !- name
  ,   !- - Lower Limit Value {BasedOnField A3}
  ,   !- - Upper Limit Value {BasedOnField A3}
  Continuous,   !- - Numeric Type
  temperature;   !- - Unit Type

ScheduleTypeLimits,
  TEMPERATURE 3,   !- name
  ,   !- - Lower Limit Value {BasedOnField A3}
  ,   !- - Upper Limit Value {BasedOnField A3}
  Continuous,   !- - Numeric Type
  temperature;   !- - Unit Type

ScheduleTypeLimits,
  TEMPERATURE 1,   !- name
  ,   !- - Lower Limit Value {BasedOnField A3}
  ,   !- - Upper Limit Value {BasedOnField A3}
  Continuous,   !- - Numeric Type
  temperature;   !- - Unit Type

ScheduleTypeLimits,
  TEMPERATURE 48,   !- name
  ,   !- - Lower Limit Value {BasedOnField A3}
  ,   !- - Upper Limit Value {BasedOnField A3}
  Continuous,   !- - Numeric Type
  temperature;   !- - Unit Type

ScheduleTypeLimits,
  TEMPERATURE 58,   !- name
  ,   !- - Lower Limit Value {BasedOnField A3}
  ,   !- - Upper Limit Value {BasedOnField A3}
  Continuous,   !- - Numeric Type
  temperature;   !- - Unit Type

ScheduleTypeLimits,
  TEMPERATURE 28,   !- name
  ,   !- - Lower Limit Value {BasedOnField A3}
  ,   !- - Upper Limit Value {BasedOnField A3}
  Continuous,   !- - Numeric Type
  temperature;   !- - Unit Type

ScheduleTypeLimits,
  TEMPERATURE 38,   !- name
  ,   !- - Lower Limit Value {BasedOnField A3}
  ,   !- - Upper Limit Value {BasedOnField A3}
  Continuous,   !- - Numeric Type
  temperature;   !- - Unit Type

ScheduleTypeLimits,
  TEMPERATURE 20,   !- name
  ,   !- - Lower Limit Value {BasedOnField A3}
  ,   !- - Upper Limit Value {BasedOnField A3}
  Continuous,   !- - Numeric Type
  temperature;   !- - Unit Type

ScheduleTypeLimits,
  TEMPERATURE 18,   !- name
  ,   !- - Lower Limit Value {BasedOnField A3}
  ,   !- - Upper Limit Value {BasedOnField A3}
  Continuous,   !- - Numeric Type
  temperature;   !- - Unit Type

ScheduleTypeLimits,
  TEMPERATURE 30,   !- name
  ,   !- - Lower Limit Value {BasedOnField A3}
  ,   !- - Upper Limit Value {BasedOnField A3}
  Continuous,   !- - Numeric Type
  temperature;   !- - Unit Type

ScheduleTypeLimits,
  TEMPERATURE 10,   !- name
  ,   !- - Lower Limit Value {BasedOnField A3}
  ,   !- - Upper Limit Value {BasedOnField A3}
  Continuous,   !- - Numeric Type
  temperature;   !- - Unit Type

ScheduleTypeLimits,
  TEMPERATURE 40,   !- name
  ,   !- - Lower Limit Value {BasedOnField A3}
  ,   !- - Upper Limit Value {BasedOnField A3}
  Continuous,   !- - Numeric Type
  temperature;   !- - Unit Type

ScheduleTypeLimits,
  CONTROL TYPE,   !- name
  0,   !- - Lower Limit Value {BasedOnField A3}
  4,   !- - Upper Limit Value {BasedOnField A3}
  DISCRETE;   !- - Numeric Type

ScheduleTypeLimits,
  TEMPERATURE 50,   !- name
  ,   !- - Lower Limit Value {BasedOnField A3}
  ,   !- - Upper Limit Value {BasedOnField A3}
  Continuous,   !- - Numeric Type
  temperature;   !- - Unit Type

ScheduleTypeLimits,
  TEMPERATURE 60,   !- name
  ,   !- - Lower Limit Value {BasedOnField A3}
  ,   !- - Upper Limit Value {BasedOnField A3}
  Continuous,   !- - Numeric Type
  temperature;   !- - Unit Type

ScheduleTypeLimits,
  TEMPERATURE 8,   !- name
  ,   !- - Lower Limit Value {BasedOnField A3}
  ,   !- - Upper Limit Value {BasedOnField A3}
  Continuous,   !- - Numeric Type
  temperature;   !- - Unit Type

ScheduleTypeLimits,
  TEMPERATURE 9,   !- name
  ,   !- - Lower Limit Value {BasedOnField A3}
  ,   !- - Upper Limit Value {BasedOnField A3}
  Continuous,   !- - Numeric Type
  temperature;   !- - Unit Type

ScheduleTypeLimits,
  TEMPERATURE 47,   !- name
  ,   !- - Lower Limit Value {BasedOnField A3}
  ,   !- - Upper Limit Value {BasedOnField A3}
  Continuous,   !- - Numeric Type
  temperature;   !- - Unit Type

ScheduleTypeLimits,
  TEMPERATURE 57,   !- name
  ,   !- - Lower Limit Value {BasedOnField A3}
  ,   !- - Upper Limit Value {BasedOnField A3}
  Continuous,   !- - Numeric Type
  temperature;   !- - Unit Type

ScheduleTypeLimits,
  TEMPERATURE 27,   !- name
  ,   !- - Lower Limit Value {BasedOnField A3}
  ,   !- - Upper Limit Value {BasedOnField A3}
  Continuous,   !- - Numeric Type
  temperature;   !- - Unit Type

ScheduleTypeLimits,
  TEMPERATURE 37,   !- name
  ,   !- - Lower Limit Value {BasedOnField A3}
  ,   !- - Upper Limit Value {BasedOnField A3}
  Continuous,   !- - Numeric Type
  temperature;   !- - Unit Type

ScheduleTypeLimits,
  TEMPERATURE 17,   !- name
  ,   !- - Lower Limit Value {BasedOnField A3}
  ,   !- - Upper Limit Value {BasedOnField A3}
  Continuous,   !- - Numeric Type
  temperature;   !- - Unit Type

ScheduleTypeLimits,
  TEMPERATURE 42,   !- name
  ,   !- - Lower Limit Value {BasedOnField A3}
  ,   !- - Upper Limit Value {BasedOnField A3}
  Continuous,   !- - Numeric Type
  temperature;   !- - Unit Type

ScheduleTypeLimits,
  TEMPERATURE 52,   !- name
  ,   !- - Lower Limit Value {BasedOnField A3}
  ,   !- - Upper Limit Value {BasedOnField A3}
  Continuous,   !- - Numeric Type
  temperature;   !- - Unit Type

ScheduleTypeLimits,
  TEMPERATURE 22,   !- name
  ,   !- - Lower Limit Value {BasedOnField A3}
  ,   !- - Upper Limit Value {BasedOnField A3}
  Continuous,   !- - Numeric Type
  temperature;   !- - Unit Type

ScheduleTypeLimits,
  TEMPERATURE 32,   !- name
  ,   !- - Lower Limit Value {BasedOnField A3}
  ,   !- - Upper Limit Value {BasedOnField A3}
  Continuous,   !- - Numeric Type
  temperature;   !- - Unit Type

ScheduleTypeLimits,
  TEMPERATURE 12,   !- name
  ,   !- - Lower Limit Value {BasedOnField A3}
  ,   !- - Upper Limit Value {BasedOnField A3}
  Continuous,   !- - Numeric Type
  temperature;   !- - Unit Type

ScheduleTypeLimits,
  ACTIVITYLEVEL 2,   !- name
  0,   !- - Lower Limit Value {BasedOnField A3}
  ,   !- - Upper Limit Value {BasedOnField A3}
  Continuous,   !- - Numeric Type
  activitylevel;   !- - Unit Type

ScheduleTypeLimits,
  FRACTION,   !- name
  0,   !- - Lower Limit Value {BasedOnField A3}
  1,   !- - Upper Limit Value {BasedOnField A3}
  CONTINUOUS;   !- - Numeric Type

ScheduleTypeLimits,
  TEMPERATURE 49,   !- name
  ,   !- - Lower Limit Value {BasedOnField A3}
  ,   !- - Upper Limit Value {BasedOnField A3}
  Continuous,   !- - Numeric Type
  temperature;   !- - Unit Type

ScheduleTypeLimits,
  TEMPERATURE 59,   !- name
  ,   !- - Lower Limit Value {BasedOnField A3}
  ,   !- - Upper Limit Value {BasedOnField A3}
  Continuous,   !- - Numeric Type
  temperature;   !- - Unit Type

ScheduleTypeLimits,
  TEMPERATURE 29,   !- name
  ,   !- - Lower Limit Value {BasedOnField A3}
  ,   !- - Upper Limit Value {BasedOnField A3}
  Continuous,   !- - Numeric Type
  temperature;   !- - Unit Type

ScheduleTypeLimits,
  TEMPERATURE 21,   !- name
  ,   !- - Lower Limit Value {BasedOnField A3}
  ,   !- - Upper Limit Value {BasedOnField A3}
  Continuous,   !- - Numeric Type
  temperature;   !- - Unit Type

ScheduleTypeLimits,
  TEMPERATURE 19,   !- name
  ,   !- - Lower Limit Value {BasedOnField A3}
  ,   !- - Upper Limit Value {BasedOnField A3}
  Continuous,   !- - Numeric Type
  temperature;   !- - Unit Type

ScheduleTypeLimits,
  TEMPERATURE 31,   !- name
  ,   !- - Lower Limit Value {BasedOnField A3}
  ,   !- - Upper Limit Value {BasedOnField A3}
  Continuous,   !- - Numeric Type
  temperature;   !- - Unit Type

ScheduleTypeLimits,
  TEMPERATURE 11,   !- name
  ,   !- - Lower Limit Value {BasedOnField A3}
  ,   !- - Upper Limit Value {BasedOnField A3}
  Continuous,   !- - Numeric Type
  temperature;   !- - Unit Type

ScheduleTypeLimits,
  TEMPERATURE 39,   !- name
  ,   !- - Lower Limit Value {BasedOnField A3}
  ,   !- - Upper Limit Value {BasedOnField A3}
  Continuous,   !- - Numeric Type
  temperature;   !- - Unit Type

ScheduleTypeLimits,
  TEMPERATURE 41,   !- name
  ,   !- - Lower Limit Value {BasedOnField A3}
  ,   !- - Upper Limit Value {BasedOnField A3}
  Continuous,   !- - Numeric Type
  temperature;   !- - Unit Type

ScheduleTypeLimits,
  TEMPERATURE 51,   !- name
  ,   !- - Lower Limit Value {BasedOnField A3}
  ,   !- - Upper Limit Value {BasedOnField A3}
  Continuous,   !- - Numeric Type
  temperature;   !- - Unit Type

ScheduleTypeLimits,
  ACTIVITYLEVEL 6,   !- name
  0,   !- - Lower Limit Value {BasedOnField A3}
  ,   !- - Upper Limit Value {BasedOnField A3}
  Continuous,   !- - Numeric Type
  activitylevel;   !- - Unit Type

ScheduleTypeLimits,
  TEMPERATURE 61,   !- name
  ,   !- - Lower Limit Value {BasedOnField A3}
  ,   !- - Upper Limit Value {BasedOnField A3}
  Continuous,   !- - Numeric Type
  temperature;   !- - Unit Type

ScheduleTypeLimits,
  TEMPERATURE 44,   !- name
  ,   !- - Lower Limit Value {BasedOnField A3}
  ,   !- - Upper Limit Value {BasedOnField A3}
  Continuous,   !- - Numeric Type
  temperature;   !- - Unit Type

ScheduleTypeLimits,
  TEMPERATURE 54,   !- name
  ,   !- - Lower Limit Value {BasedOnField A3}
  ,   !- - Upper Limit Value {BasedOnField A3}
  Continuous,   !- - Numeric Type
  temperature;   !- - Unit Type

ScheduleTypeLimits,
  TEMPERATURE 24,   !- name
  ,   !- - Lower Limit Value {BasedOnField A3}
  ,   !- - Upper Limit Value {BasedOnField A3}
  Continuous,   !- - Numeric Type
  temperature;   !- - Unit Type

ScheduleTypeLimits,
  ACTIVITYLEVEL 5,   !- name
  0,   !- - Lower Limit Value {BasedOnField A3}
  ,   !- - Upper Limit Value {BasedOnField A3}
  Continuous,   !- - Numeric Type
  activitylevel;   !- - Unit Type

ScheduleTypeLimits,
  ACTIVITYLEVEL,   !- name
  0,   !- - Lower Limit Value {BasedOnField A3}
  ,   !- - Upper Limit Value {BasedOnField A3}
  Continuous,   !- - Numeric Type
  activitylevel;   !- - Unit Type

ScheduleTypeLimits,
  TEMPERATURE 34,   !- name
  ,   !- - Lower Limit Value {BasedOnField A3}
  ,   !- - Upper Limit Value {BasedOnField A3}
  Continuous,   !- - Numeric Type
  temperature;   !- - Unit Type

ScheduleTypeLimits,
  TEMPERATURE 14,   !- name
  ,   !- - Lower Limit Value {BasedOnField A3}
  ,   !- - Upper Limit Value {BasedOnField A3}
  Continuous,   !- - Numeric Type
  temperature;   !- - Unit Type

ScheduleTypeLimits,
  ACTIVITYLEVEL 8,   !- name
  0,   !- - Lower Limit Value {BasedOnField A3}
  ,   !- - Upper Limit Value {BasedOnField A3}
  Continuous,   !- - Numeric Type
  activitylevel;   !- - Unit Type

ScheduleTypeLimits,
  TEMPERATURE 43,   !- name
  ,   !- - Lower Limit Value {BasedOnField A3}
  ,   !- - Upper Limit Value {BasedOnField A3}
  Continuous,   !- - Numeric Type
  temperature;   !- - Unit Type

ScheduleTypeLimits,
  TEMPERATURE 53,   !- name
  ,   !- - Lower Limit Value {BasedOnField A3}
  ,   !- - Upper Limit Value {BasedOnField A3}
  Continuous,   !- - Numeric Type
  temperature;   !- - Unit Type

ScheduleTypeLimits,
  TEMPERATURE 23,   !- name
  ,   !- - Lower Limit Value {BasedOnField A3}
  ,   !- - Upper Limit Value {BasedOnField A3}
  Continuous,   !- - Numeric Type
  temperature;   !- - Unit Type

ScheduleTypeLimits,
  TEMPERATURE 13,   !- name
  ,   !- - Lower Limit Value {BasedOnField A3}
  ,   !- - Upper Limit Value {BasedOnField A3}
  Continuous,   !- - Numeric Type
  temperature;   !- - Unit Type


GlobalGeometryRules,
 LowerLeftCorner,         !- Starting Vertex Position
 CounterClockWise,        !- Vertex Entry Direction
 Relative,                !- Coordinate System
 Relative,                !- Daylighting Ref Point Coordinate System
 Relative;                !- Rectangular Surface Coordinate System

Zone,